$$
$$ This is a shoe model for the 50th Percentile Female standing Model
$$ This is version 0.1 as of 30-03-2021
$$ The shoe model was developed by Desiree Kofler (TU Graz)     
$$ Please contact here if you ave any questions: desiree.kofler@tugraz.at
$$
$$ This Model is free software: you can redistribute it and/or modify
$$ it under the terms of the GNU Lesser General Public License (LGLP) 
$$ as published by the Free Software Foundation, either version 3 of 
$$ the License, or (at your option) any later version.
$
$
$$ This Model is distributed in the hope that it will be useful,
$$ but WITHOUT ANY WARRANTY; without even the implied warranty of
$$ MERCHANTABILITY or FITNESS FOR A PARTICULAR PURPOSE.  See the
$$ GNU Lesser General Public License for more details.
$
$
$$ You should have received a copy of the GNU Lesser General Public License
$$ along with this Model.  If not, see <http://www.gnu.org/licenses/>.
$
$
$$ Additional permission under GNU GPL version 3 section 7
$$ If you modify this Model, or any covered work, by linking it with
$$ another model, the licensors of this Model grant you additional
$$ permission to convey the resulting work.
$$
$$ IN ADDITION TO THE LIMITATIONS OF LIABILITY REGULATED IN THIS LICENSE, 
$$ THE FOLLOWING LIMITATIONS OF LIABILITY SHALL APPLY: IN NO EVENT UNLESS 
$$ REQUIRED BY APPLICABLE LAW SHALL ANY COPYRIGHT HOLDER, OR ANY OTHER PARTY 
$$ WHO MODIFIES AND/OR CONVEYS THE MODEL AS PERMITTED IN ACCORDANCE WITH 
$$ THIS LICENSE, BE LIABLE TO YOU FOR ANY INDIRECT OR DIRECT DAMAGES, 
$$ INCLUDING BUT NOT LIMITED TO DEATH, BODILY INJURY AND PROPERTY DAMAGES 
$$ (PUBLIC OR PRIVATE), EVEN IF SUCH HOLDER OR OTHER PARTY HAS BEEN ADVISED 
$$ OF THE POSSIBILITY OF SUCH DAMAGES. 
$$ ANY USE OF THE SOFTWARE IS AT YOUR OWN RISK.
$$
$$ Unit System of the model: mm-ms-kg-kN
$$
$$ The model was developed within the VIRTUAL project
$$ https://projectvirtual.eu/
$$ Open access HBMs for virtual testing
$$
$$
$
$

*KEYWORD
$*INCLUDE
$vivaplus-82-Shoes-50F_standing_nodes.k
$
*PART
$#                                                                       HEADING
Sole_outer_left
$#     PID     SECID       MID     EOSID      HGID      GRAV    ADPOPT      TMID
         1         1         1         0         0         0         0         0
*SECTION_SHELL
$#   SECID    ELFORM      SHRF       NIP     PROPT   QR/IRID     ICOMP
         1         2  0.833333        0.        0.        0.         0
$#      T1        T2        T3        T4      NLOC     MAREA
        1.        1.        1.        1.        0.        0.
*PART
$#                                                                       HEADING
Sole_mid_left
$#     PID     SECID       MID     EOSID      HGID      GRAV    ADPOPT      TMID
         2         2         2         0         0         0         0         0
*SECTION_SOLID
$    SECID|   ELFORM|
$#   SECID    ELFORM       AET
         2         1         0
*PART
$#                                                                       HEADING
Sole_inner_left
$#     PID     SECID       MID     EOSID      HGID      GRAV    ADPOPT      TMID
         3         3         3         0         0         0         0         0
*SECTION_SHELL
$#   SECID    ELFORM      SHRF       NIP     PROPT   QR/IRID     ICOMP
         3         2  0.833333        0.        0.        0.         0
$#      T1        T2        T3        T4      NLOC     MAREA
        1.        1.        1.        1.        0.        0.
*PART
$#                                                                       HEADING
Fabric_outer_left
$#     PID     SECID       MID     EOSID      HGID      GRAV    ADPOPT      TMID
         4         4         4         0         0         0         0         0
*SECTION_SHELL
$#   SECID    ELFORM      SHRF       NIP     PROPT   QR/IRID     ICOMP
         4         2  0.833333        0.        0.        0.         0
$#      T1        T2        T3        T4      NLOC     MAREA
        1.        1.        1.        1.        0.        0.
*PART
$#                                                                       HEADING
Fabric_inner_left
$#     PID     SECID       MID     EOSID      HGID      GRAV    ADPOPT      TMID
         5         5         5         0         0         0         0         0
*SECTION_SHELL
$#   SECID    ELFORM      SHRF       NIP     PROPT   QR/IRID     ICOMP
         5         2  0.833333        0.        0.        0.         0
$       T1|       T2|       T3|       T4|     NLOC|    MAREA|
$#      T1        T2        T3        T4      NLOC     MAREA
        1.        1.        1.        1.        0.        0.
*PART
$#                                                                       HEADING
Sole_outer_right
$#     PID     SECID       MID     EOSID      HGID      GRAV    ADPOPT      TMID
         6         6         1         0         0         0         0         0
*SECTION_SHELL
$#   SECID    ELFORM      SHRF       NIP     PROPT   QR/IRID     ICOMP
         6         2  0.833333        0.        0.        0.         0
$       T1|       T2|       T3|       T4|     NLOC|    MAREA|
$#      T1        T2        T3        T4      NLOC     MAREA
        1.        1.        1.        1.        0.        0.
*PART
$#                                                                       HEADING
Sole_mid_right
$#     PID     SECID       MID     EOSID      HGID      GRAV    ADPOPT      TMID
         7         7         2         0         0         0         0         0
*SECTION_SOLID
$    SECID|   ELFORM|
$#   SECID    ELFORM       AET
         7         1         0
*PART
$#                                                                       HEADING
Sole_inner_right
$#     PID     SECID       MID     EOSID      HGID      GRAV    ADPOPT      TMID
         8         8         3         0         0         0         0         0
*SECTION_SHELL
$#   SECID    ELFORM      SHRF       NIP     PROPT   QR/IRID     ICOMP
         8         2  0.833333        0.        0.        0.         0
$       T1|       T2|       T3|       T4|     NLOC|    MAREA|
$#      T1        T2        T3        T4      NLOC     MAREA
        1.        1.        1.        1.        0.        0.
*PART
$#                                                                       HEADING
Fabric_outer_right
$#     PID     SECID       MID     EOSID      HGID      GRAV    ADPOPT      TMID
         9         9         4         0         0         0         0         0
*SECTION_SHELL
$#   SECID    ELFORM      SHRF       NIP     PROPT   QR/IRID     ICOMP
         9         2  0.833333        0.        0.        0.         0
$       T1|       T2|       T3|       T4|     NLOC|    MAREA|
$#      T1        T2        T3        T4      NLOC     MAREA
        1.        1.        1.        1.        0.        0.
*PART
$#                                                                       HEADING
Fabric_inner_right
$#     PID     SECID       MID     EOSID      HGID      GRAV    ADPOPT      TMID
        10        10         5         0         0         0         0         0
*SECTION_SHELL
$#   SECID    ELFORM      SHRF       NIP     PROPT   QR/IRID     ICOMP
        10         2  0.833333        0.        0.        0.         0
$       T1|       T2|       T3|       T4|     NLOC|    MAREA|
$#      T1        T2        T3        T4      NLOC     MAREA
        1.        1.        1.        1.        0.        0.
*MAT_ELASTIC_TITLE
$#                                                                         TITLE
Sole_outer
$#     MID        RO         E        PR        DA        DB
         1    2.3E-6   0.00249      0.35        0.        0.
*MAT_ELASTIC_TITLE
$#                                                                         TITLE
Sole_mid
$#     MID        RO         E        PR        DA        DB
         2      1E-6   0.00249      0.35        0.        0.
*MAT_ELASTIC_TITLE
$#                                                                         TITLE
Sole_inner
$#     MID        RO         E        PR        DA        DB
         3    2.3E-6   0.00198      0.35        0.        0.
*MAT_ELASTIC_TITLE
$#                                                                         TITLE
Fabric_outer
$#     MID        RO         E        PR        DA        DB
         4    2.3E-6   0.01176      0.35        0.        0.
*MAT_ELASTIC_TITLE
$#                                                                         TITLE
Fabric_inner
$#     MID        RO         E        PR        DA        DB
         5    2.3E-6   0.01176      0.35        0.        0.
*SET_PART_LIST
$#     SID       DA1       DA2       DA3       DA4    SOLVER
         1        0.        0.        0.        0.          
$#    PID1      PID2
         9         7
*SET_PART_LIST
$#     SID       DA1       DA2       DA3       DA4    SOLVER
         2        0.        0.        0.        0.          
$#    PID1      PID2
         4         2
*SET_SHELL_GENERAL
$#     SID       DA1       DA2       DA3       DA4
         3        0.        0.        0.        0.
$#       A        E1        E2        E3        E4
      PART         4         5         9        10
*SET_SHELL_GENERAL
$#     SID       DA1       DA2       DA3       DA4    SOLVER
         4        0.        0.        0.        0.          
$#    PID1      PID2      PID3      PID4      PID5      PID6
      PART         3         4         5         8         9        10
*SET_NODE_LIST_GENERATE_TITLE
$#                                                                         TITLE
All Shoe Nodes
$#     SID       DA1       DA2       DA3       DA4    SOLVER
         5        0.        0.        0.        0.          
$#   B1BEG     B1END
         1      4294  
$-------------------------------------------------------------------------------
$ Contacts
$-------------------------------------------------------------------------------
*CONTACT_AUTOMATIC_SURFACE_TO_SURFACE_ID
$#     CID                                                                  NAME
         1Shoe_right_to_Shoe_left
$#    SSID      MSID     SSTYP     MSTYP    SBOXID    MBOXID       SPR       MPR
         1         2         2         2         0         0         0         0
$#      FS        FD        DC        VC       VDC    PENCHK        BT        DT
       0.3        0.        0.        0.       20.         0        0.      1E20
$#     SFS       SFM       SST       MST      SFST      SFMT       FSF       VSF
        1.        1.        0.        0.        1.        1.        1.        1.
$#    SOFT    SOFSCL    LCIDAB    MAXPAR     SBOPT     DEPTH     BSORT    FRCFRQ
         2       0.1        0.        0.        3.        5.        0.        1.
$#  PENMAX    THKOPT               SNLOG      ISYM     I2D3D    SLDTHK    SLDSTF
        0.         0                   0         0         0        0.        0.
$-------------------------------------------------------------------------------
*CONTACT_AUTOMATIC_SINGLE_SURFACE_ID
$#     CID                                                                  NAME
         2Fabric_outer_to_Fabric_inner
$#    SSID      MSID     SSTYP     MSTYP    SBOXID    MBOXID       SPR       MPR
         3         0         1         0         0         0         0         0
$#      FS        FD        DC        VC       VDC    PENCHK        BT        DT
       0.3        0.        0.        0.       20.         0        0.      1E20
$#     SFS       SFM       SST       MST      SFST      SFMT       FSF       VSF
        1.        1.        0.        0.        1.        1.        1.        1.
$#    SOFT    SOFSCL    LCIDAB    MAXPAR     SBOPT     DEPTH     BSORT    FRCFRQ
         2       0.1        0.        0.        3.        5.        0.        1.
$#  PENMAX    THKOPT               SNLOG      ISYM     I2D3D    SLDTHK    SLDSTF
        0.         0                   0         0         0        0.        0.
*ELEMENT_SHELL
    3792       4    2643    2144    2146    2146
    3678       4     674     679    1925    1925
    3671       4    1899    1892    1902    1902
    3672       4    1919    1891    1918    1918
    3673       4    1920    1925     679     679
    3674       4    1895    1894    1922    1922
    3675       4    1938    1939    1945    1945
    3676       4    1957    1956     541     541
    3677       4    1925    1920    1922    1922
    3679       4    1961    1960    1962    1962
    3680       4    1923    1964    1963    1963
    3681       4    1932    1931    1966    1966
    3682       4    1935    1932    1965    1965
    3683       4    1973    1976    1975    1975
    3684       4    1948    1982     111     111
    3685       4     749     142    1990    1990
    3686       4     749    1990    1988    1988
    3687       4    1989    1949     748     748
    3688       4    1996    1951    1949    1949
    3689       4    2008    1956    1955    1955
$ ... 102 like lines cut
*ELEMENT_SHELL
    1129       4     104     105    1987    2048
    1130       4     103     104    2048    2047
    1131       4    2050    2051    2098    2058
    1132       4    2103    2100    2102    2104
    1133       4    2060    2059    2112    2113
    1134       4    2059    2062    2114    2112
    1135       4    2116    2117    2069    2066
    1136       4    2117    2118    2070    2069
    1137       4    2118    2119    2071    2070
    1138       4    2119    2120    2074    2071
    1139       4    2120    2121    2073    2074
    1140       4    2121    2122    2072    2073
    1141       4    2122    2123    2075    2072
    1142       4    2123    2076    2014    2075
    1143       4      97      98    2090    2089
    1144       4    2104    2102    2142    2143
    1145       4    2146    2144    2109    2106
    1146       4    2143    2134    2146    2106
    1147       4    2143    2142    2132    2134
    1148       4      92      93    2140    2159
$ ... 774 like lines cut
*ELEMENT_SHELL
    3971       9    4948    4355    4356    4356
    3857       9    4175    4215    4183    4183
    3850       9    4174    4159    4156    4156
    3851       9    4179    4181    4180    4180
    3852       9    4182    4183    4215    4215
    3853       9    4152    4186    4151    4151
    3854       9    4201    4208    4202    4202
    3855       9    4214    4270    4213    4213
    3856       9    4215    4186    4182    4182
    3858       9    4219    4222    4218    4218
    3859       9    4187    4223    4224    4224
    3860       9    4195    4226    4194    4194
    3861       9    4198    4225    4195    4195
    3862       9    4233    4235    4240    4240
    3863       9    4244    3166    4242    4242
    3864       9    3135    4247    4028    4028
    3865       9    3135    4245    4247    4247
    3866       9    4246    3127    4252    4252
    3867       9    4253    4252    4254    4254
    3868       9    4306    4212    4213    4213
$ ... 2920 like lines cut
*ELEMENT_SHELL
    3613       5     626     621     150     150
    3614       5     147     153     154     154
    3615       5     751     687     685     685
    3616       5     754     755     683     683
    3617       5     683     147     753     753
    3618       3     768     705     209     209
    3619       3     789     698     772     772
    3620       3     773     774     790     790
    3621       3     797     785     786     786
    3622       3     798     787     788     788
    3623       3     776     792     775     775
    3624       3     788     792     791     791
    3625       3     779     780     795     795
    3626       5     642     453     805     805
    3627       3     461     750     144     144
    3628       3     128     127     765     765
    3629       3     802     430     799     799
    3630       3     748     345     296     296
    3631       3     306     749     300     300
    3632       3     234     742     741     741
$ ... 106 like lines cut
*ELEMENT_SOLID
    3983       2    1051      71    1109    1108      70      70    1110    1110
    3984       2    1108    1109    1477    1476    1110    1110    1478    1478
    3985       2    1476    1477     123     763    1478    1478     122     122
    3986       2    1056     990    1112    1111     994     994    1113    1113
    3987       2    1111    1112    1480    1479    1113    1113    1481    1481
    3988       2    1479    1480     705     768    1481    1481     209     209
    3989       2    1077     986    1115    1114    1060    1060    1116    1116
    3990       2    1114    1115    1483    1482    1116    1116    1484    1484
    3991       2    1482    1483     698     789    1484    1484     772     772
    3992       2    1061    1062    1118    1117    1078    1078    1119    1119
    3993       2    1117    1118    1486    1485    1119    1119    1487    1487
    3994       2    1485    1486     774     773    1487    1487     790     790
    3995       2    1085    1074    1121    1120    1073    1073    1122    1122
    3996       2    1120    1121    1489    1488    1122    1122    1490    1490
    3997       2    1488    1489     785     797    1490    1490     786     786
    3998       2    1086    1075    1124    1123    1076    1076    1125    1125
    3999       2    1123    1124    1492    1491    1125    1125    1493    1493
    4000       2    1491    1492     787     798    1493    1493     788     788
    4001       2    1064    1080    1127    1126    1063    1063    1128    1128
    4002       2    1126    1127    1495    1494    1128    1128    1496    1496
$ ... 136 like lines cut
*ELEMENT_SOLID
    4139       2    1179    1180    1181    1182     856     855     857     858
    4140       2    1547    1548    1549    1550    1179    1180    1181    1182
    4141       2     476     486     487     477    1547    1548    1549    1550
    4142       2    1182    1181    1183    1184     858     857     818     821
    4143       2    1550    1549    1551    1552    1182    1181    1183    1184
    4144       2     477     487     349     348    1550    1549    1551    1552
    4145       2    1185    1186    1187    1180     854     859     860     855
    4146       2    1553    1554    1555    1548    1185    1186    1187    1180
    4147       2     385     389     488     486    1553    1554    1555    1548
    4148       2    1180    1187    1188    1181     855     860     861     857
    4149       2    1548    1555    1556    1549    1180    1187    1188    1181
    4150       2     486     488     489     487    1548    1555    1556    1549
    4151       2    1181    1188    1189    1183     857     861     828     818
    4152       2    1549    1556    1557    1551    1181    1188    1189    1183
    4153       2     487     489     358     349    1549    1556    1557    1551
    4154       2    1186    1190    1191    1187     859     862     863     860
    4155       2    1554    1558    1559    1555    1186    1190    1191    1187
    4156       2     389     393     480     488    1554    1558    1559    1555
    4157       2    1187    1191    1192    1188     860     863     864     861
    4158       2    1555    1559    1560    1556    1187    1191    1192    1188
$ ... 1864 like lines cut
*END